/*--------------------------------*- C++ -*----------------------------------*\
  =========                 |
  \\      /  F ield         | OpenFOAM: The Open Source CFD Toolbox
   \\    /   O peration     | Website:  https://openfoam.org
    \\  /    A nd           | Version:  7
     \\/     M anipulation  |
\*---------------------------------------------------------------------------*/
FoamFile
{
    version     2.0;
    format      binary;
    class       polyBoundaryMesh;
    location    "constant/polyMesh";
    object      boundary;
}
// * * * * * * * * * * * * * * * * * * * * * * * * * * * * * * * * * * * * * //

4
(
    inlet
    {
        type            patch;
        nFaces          200;
        startFace       22800;
    }
    walls
    {
        type            wall;
        inGroups        List<word> 1(wall);
        nFaces          1600;
        startFace       23000;
    }
    outlet
    {
        type            patch;
        nFaces          200;
        startFace       24600;
    }
    atmosphere
    {
        type            patch;
        nFaces          400;
        startFace       24800;
    }
)

// ************************************************************************* //
